/*---------------------------------------------------------------------------*\
| =========                 |                                                 |
| \\      /  F ield         | OpenFOAM: The Open Source CFD Toolbox           |
|  \\    /   O peration     | Version:  xx                                   |
|   \\  /    A nd           | Web:      http://www.openfoam.org               |
|    \\/     M anipulation  |                                                 |
\*---------------------------------------------------------------------------*/

FoamFile
{
    version     2.0;
    format      ascii;
    class       dictionary;
    object      setParticlesDict;
}

// * * * * * * * * * * * * * * * * * * * * * * * * * * * * * * * * * * * * * //

boundingBoxMin		
(0.0125 	0 		-0.004826);
 	
boundingBoxMax		
(16.0 		0.0508  	0.004826);

separationStreamwise	0.0127;
separationSpanwise	0.004826;		


initTemp 300;

initTimeStep	0.01;

initSize 	6.9850E-04;

initVelo 	(0 0 0);

initYO2 	0.233;

initGaugeP 	0.0;

initWetSolid	1.0;
initDrySolid	0.0;
initChar	0.0;
initAsh		0.0;

initState	1;

probeLocations
(
(	8	0.0508	0	)
(	8.1	0.0508	0	)
(	8.2	0.0508	0	)
(	8.3	0.0508	0	)
(	8.4	0.0508	0	)
(	8.5	0.0508	0	)
(	8.6	0.0508	0	)
(	8.7	0.0508	0	)
(	8.8	0.0508	0	)
(	8.9	0.0508	0	)
(	9	0.0508	0	)
(	8	0.025	0	)
(	8.1	0.025	0	)
(	8.2	0.025	0	)
(	8.3	0.025	0	)
(	8.4	0.025	0	)
(	8.5	0.025	0	)
(	8.6	0.025	0	)
(	8.7	0.025	0	)
(	8.8	0.025	0	)
(	8.9	0.025	0	)
(	9	0.025	0	)
(	8	0	0	)
(	8.1	0	0	)
(	8.2	0	0	)
(	8.3	0	0	)
(	8.4	0	0	)
(	8.5	0	0	)
(	8.6	0	0	)
(	8.7	0	0	)
(	8.8	0	0	)
(	8.9	0	0	)
(	9	0	0	)
);

// ************************************************************************* //
