/*---------------------------------------------------------------------------*\
| =========                 |                                                 |
| \\      /  F ield         | OpenFOAM: The Open Source CFD Toolbox           |
|  \\    /   O peration     | Version:  xx                                   |
|   \\  /    A nd           | Web:      http://www.openfoam.org               |
|    \\/     M anipulation  |                                                 |
\*---------------------------------------------------------------------------*/

FoamFile
{
    version     2.0;
    format      ascii;
    class       dictionary;
    object      setParticlesDict;
}

// * * * * * * * * * * * * * * * * * * * * * * * * * * * * * * * * * * * * * //

boxMin 		(-5 -5 0); 		// mimmum coordinates of the vegettion bed
boxMax 		(5 5 10);		// maximum coordinates of the vegettion bed

ignMin 		(0 0 0); 		// mimmum coordinates for ignition zone
ignMax 		(0 0 0);		// maximum coordinates for ignition zone

initTemp 	300;
ignTemp 	300;

initTimeStep	1e-2;

initSize 	3.8e-2;

initVelo 	(0 0 0);

initYO2 	0.233;

initGaugeP 	0.0;

initWetSolid	1.0;
initDrySolid	0.0;
initChar	0.0;
initAsh		0.0;

initState	1;

// ************************************************************************* //
