/*---------------------------------------------------------------------------*\
| =========                 |                                                 |
| \\      /  F ield         | OpenFOAM: The Open Source CFD Toolbox           |
|  \\    /   O peration     | Version:  xx                                   |
|   \\  /    A nd           | Web:      http://www.openfoam.org               |
|    \\/     M anipulation  |                                                 |
\*---------------------------------------------------------------------------*/

FoamFile
{
    version     2.0;
    format      ascii;
    class       dictionary;
    object      setParticlesDict;
}

// * * * * * * * * * * * * * * * * * * * * * * * * * * * * * * * * * * * * * //

fuelBedRegions //single or multiple regions defined by box bounds
(
(0 0 -1000) (1000 0.399 1000)
//(0 0 -1000) (10 0.399 1000) 
//(20 0 -1000) (30 0.399 1000)  
);


nParticlesPerSuperParticle   1;	

initTemp 300;

initTimeStep	0.1;

initSize 	1e-3;

initVelo 	(0 0 0);

initYO2 	0.233;

initGaugeP 	0.0;

initWetSolid	1.0;
initDrySolid	0.0;
initChar	0.0;
initAsh		0.0;

initState	0;

probeLocations
(
(	2.5		0		0	)
(	2.5		0.3999		0	)
(	5		0		0	)
(	5		0.3999		0	)
(	10		0		0	)
(	10		0.3999		0	)
(	20		0		0	)
(	20		0.3999		0	)
(	40		0		0	)
(	40		0.3999		0	)
);

// ************************************************************************* //
