/*--------------------------------*- C++ -*----------------------------------*\
| =========                 |                                                 |
| \\      /  F ield         | OpenFOAM: The Open Source CFD Toolbox           |
|  \\    /   O peration     | Version:  1.7.1                                 |
|   \\  /    A nd           | Web:      www.OpenFOAM.org                      |
|    \\/     M anipulation  |                                                 |
\*---------------------------------------------------------------------------*/

FoamFile
{
    version     2.0;
    format      ascii;
    class       dictionary;
    location    "constant";
    object      radiationProperties;
}
// * * * * * * * * * * * * * * * * * * * * * * * * * * * * * * * * * * * * * //

radiation       on;

radiationModel  fvDOM;

noRadiation
{
}

fvDOMCoeffs
{
    nPhi    2;          // azimuthal angles in PI/2 on X-Y.(from Y to X)
    nTheta  4;          // polar angles in PI (from Z to X-Y plane)
    convergence 1e-4;   // convergence criteria for radiation iteration
    maxIter 5;         // maximum number of iterations
}

// Number of flow iterations per radiation iteration
solverFreq 10;


absorptionEmissionModel binaryAbsorptionEmission;

binaryAbsorptionEmissionCoeffs
{

	model1
	{
		absorptionEmissionModel greyMeanAbsorptionEmission;
		greyMeanAbsorptionEmissionCoeffs
		{
				lookUpTableFileName     "SpeciesTable";
				EhrrCoeff                0.0;
		}
	
	}


	model2
	{
		absorptionEmissionModel biomassCloudAbsorptionEmission;
		biomassCloudAbsorptionEmissionCoeffs
		{
            		cloudNames
            		(
				vegetationBed
            		);
		}
	
	}


}





scatterModel    constantScatter;

constantScatterCoeffs
{
    sigma           sigma [ 0 -1 0 0 0 0 0 ] 0;
    C               C [ 0 0 0 0 0 0 0 ] 0;
}


// ************************************************************************* //
