/*---------------------------------------------------------------------------*\
| =========                 |                                                 |
| \\      /  F ield         | OpenFOAM: The Open Source CFD Toolbox           |
|  \\    /   O peration     | Version:  xx                                   |
|   \\  /    A nd           | Web:      http://www.openfoam.org               |
|    \\/     M anipulation  |                                                 |
\*---------------------------------------------------------------------------*/

FoamFile
{
    version     2.0;
    format      ascii;
    class       dictionary;
    object      setParticlesDict;
}

// * * * * * * * * * * * * * * * * * * * * * * * * * * * * * * * * * * * * * //

boundingBoxMin
(
(-0.475 0 0)
(38.001 0 0)
);

boundingBoxMax
(
(118 0.4 0.1)
(42.001 0.4 0.1)
);

separationStreamwise	(0.048 0.1);
separationSpanwise	(0.1 0.1);

initState	(1 1);

nParticlesPerSuperParticle   (8 1);

initTimeStep	(0.1 0.1);

initSize 	(1e-3 1e-2);

initVelo 	((0 0 0) (0 0 0));

initTemp 	(300 300);
initYO2 	(0.233 0.233);
initGaugeP 	(0.0 0.0);
initWetSolid	(1.0 1.0);
initDrySolid	(0.0 0.0);
initChar	(0.0 0.0);
initAsh		(0.0 0.0);

probeLocations
(
(	40		0		0	)
(	40		0.2		0	)
(	40		0.4		0	)
);

// ************************************************************************* //
